Test_Network/condensed/network_18/Feeder_7/Loads - Copy.txt
New Load.LOAD1 Phases=1 Bus1=45.1 kV=0.23 kW=1 PF=0.95
New Load.LOAD2 Phases=1 Bus1=141.2 kV=0.23 kW=1 PF=0.95
New Load.LOAD3 Phases=1 Bus1=143.3 kV=0.23 kW=1 PF=0.95
New Load.LOAD4 Phases=1 Bus1=164.3 kV=0.23 kW=1 PF=0.95
New Load.LOAD5 Phases=1 Bus1=166.3 kV=0.23 kW=1 PF=0.95
New Load.LOAD6 Phases=1 Bus1=187.1 kV=0.23 kW=1 PF=0.95
New Load.LOAD7 Phases=1 Bus1=264.3 kV=0.23 kW=1 PF=0.95
New Load.LOAD8 Phases=1 Bus1=328.1 kV=0.23 kW=1 PF=0.95
New Load.LOAD9 Phases=1 Bus1=342.3 kV=0.23 kW=1 PF=0.95
New Load.LOAD10 Phases=1 Bus1=370.3 kV=0.23 kW=1 PF=0.95
New Load.LOAD11 Phases=1 Bus1=382.2 kV=0.23 kW=1 PF=0.95
New Load.LOAD12 Phases=1 Bus1=391.1 kV=0.23 kW=1 PF=0.95
New Load.LOAD13 Phases=1 Bus1=402.2 kV=0.23 kW=1 PF=0.95
New Load.LOAD14 Phases=1 Bus1=411.2 kV=0.23 kW=1 PF=0.95
New Load.LOAD15 Phases=1 Bus1=447.1 kV=0.23 kW=1 PF=0.95
New Load.LOAD16 Phases=1 Bus1=503.2 kV=0.23 kW=1 PF=0.95
New Load.LOAD17 Phases=1 Bus1=508.2 kV=0.23 kW=1 PF=0.95
New Load.LOAD18 Phases=1 Bus1=516.2 kV=0.23 kW=1 PF=0.95
New Load.LOAD19 Phases=1 Bus1=526.1 kV=0.23 kW=1 PF=0.95
New Load.LOAD20 Phases=1 Bus1=528.2 kV=0.23 kW=1 PF=0.95
New Load.LOAD21 Phases=1 Bus1=542.1 kV=0.23 kW=1 PF=0.95
New Load.LOAD22 Phases=1 Bus1=555.3 kV=0.23 kW=1 PF=0.95
New Load.LOAD23 Phases=1 Bus1=561.3 kV=0.23 kW=1 PF=0.95
New Load.LOAD24 Phases=1 Bus1=564.1 kV=0.23 kW=1 PF=0.95
New Load.LOAD25 Phases=1 Bus1=585.3 kV=0.23 kW=1 PF=0.95
New Load.LOAD26 Phases=1 Bus1=616.1 kV=0.23 kW=1 PF=0.95
New Load.LOAD27 Phases=1 Bus1=631.1 kV=0.23 kW=1 PF=0.95
New Load.LOAD28 Phases=1 Bus1=635.3 kV=0.23 kW=1 PF=0.95
